
     RDKit          3D

 23 23  0  0  0  0  0  0  0  0999 V2000
   14.8442   22.9034   39.2183 P   0  0  2  0  0  0  0  0  0  0  0  0
   14.3270   22.2855   40.5081 O   0  0  0  0  0  0  0  0  0  0  0  0
   16.1628   23.6491   39.1780 O   0  0  0  0  0  0  0  0  0  0  0  0
   19.4651   17.7072   39.4732 O   0  0  0  0  0  0  0  0  0  0  0  0
   17.8252   17.2136   40.9776 O   0  0  0  0  0  0  0  0  0  0  0  0
   17.5644   19.7082   36.5978 O   0  0  0  0  0  0  0  0  0  0  0  0
   13.6749   23.8148   38.5441 O   0  0  0  0  0  0  0  0  0  0  0  0
   16.2917   21.3347   37.5978 N   0  0  0  0  0  0  0  0  0  0  0  0
   13.1202   23.5067   34.5980 C   0  0  0  0  0  0  0  0  0  0  0  0
   14.3688   22.7066   34.2616 C   0  0  0  0  0  0  0  0  0  0  0  0
   13.3062   27.9006   39.2192 C   0  0  0  0  0  0  0  0  0  0  0  0
   14.7915   21.7360   35.3670 C   0  0  0  0  0  0  0  0  0  0  0  0
   12.3408   27.0407   39.7439 C   0  0  0  0  0  0  0  0  0  0  0  0
   14.3707   27.3825   38.4820 C   0  0  0  0  0  0  0  0  0  0  0  0
   14.0543   21.8921   36.7011 C   0  0  0  0  0  0  0  0  0  0  0  0
   17.6998   19.2675   39.8384 C   0  0  0  0  0  0  0  0  0  0  0  0
   12.4384   25.6632   39.5324 C   0  0  0  0  0  0  0  0  0  0  0  0
   14.4662   26.0056   38.2727 C   0  0  0  0  0  0  0  0  0  0  0  0
   16.5967   19.2615   38.7878 C   0  0  0  0  0  0  0  0  0  0  0  0
   18.3924   17.9299   40.0982 C   0  0  0  0  0  0  0  0  0  0  0  0
   14.8729   21.5027   37.9352 C   0  0  0  0  0  0  0  0  0  0  0  0
   16.9027   20.0993   37.5550 C   0  0  0  0  0  0  0  0  0  0  0  0
   13.5003   25.1456   38.7968 C   0  0  0  0  0  0  0  0  0  0  0  0
  1  2  2  0
  1  3  1  0
  1  7  1  0
  1 21  1  0
  4 20  2  0
  5 20  1  0
  6 22  2  0
  7 23  1  0
  8 21  1  0
  8 22  1  0
  9 10  1  0
 10 12  1  0
 11 13  4  0
 11 14  4  0
 12 15  1  0
 13 17  4  0
 14 18  4  0
 21 15  1  0
 16 19  1  0
 16 20  1  0
 17 23  4  0
 18 23  4  0
 19 22  1  0
M  CHG  2   3  -1   5  -1
M  END
