
     RDKit          3D

 23 23  0  0  0  0  0  0  0  0999 V2000
   17.9485   18.1944   31.6495 P   0  0  2  0  0  0  0  0  0  0  0  0
   17.8864   17.5992   33.0491 O   0  0  0  0  0  0  0  0  0  0  0  0
   17.2280   17.5156   30.5013 O   0  0  0  0  0  0  0  0  0  0  0  0
   16.3614   23.0173   35.5001 O   0  0  0  0  0  0  0  0  0  0  0  0
   16.7779   25.0947   34.6585 O   0  0  0  0  0  0  0  0  0  0  0  0
   17.8364   22.8160   32.2605 O   0  0  0  0  0  0  0  0  0  0  0  0
   19.5189   18.4584   31.2905 O   0  0  0  0  0  0  0  0  0  0  0  0
   18.3106   20.6188   32.7280 N   0  0  0  0  0  0  0  0  0  0  0  0
   13.8639   22.8027   30.7791 C   0  0  0  0  0  0  0  0  0  0  0  0
   14.0307   21.4191   31.3867 C   0  0  0  0  0  0  0  0  0  0  0  0
   20.7702   19.2000   27.3995 C   0  0  0  0  0  0  0  0  0  0  0  0
   15.1775   21.3192   32.3935 C   0  0  0  0  0  0  0  0  0  0  0  0
   19.7872   18.2467   27.6649 C   0  0  0  0  0  0  0  0  0  0  0  0
   21.3444   19.9174   28.4495 C   0  0  0  0  0  0  0  0  0  0  0  0
   15.9265   19.9837   32.4657 C   0  0  0  0  0  0  0  0  0  0  0  0
   18.5958   23.6287   34.9359 C   0  0  0  0  0  0  0  0  0  0  0  0
   19.3807   18.0126   28.9791 C   0  0  0  0  0  0  0  0  0  0  0  0
   20.9397   19.6774   29.7643 C   0  0  0  0  0  0  0  0  0  0  0  0
   18.9765   22.2786   34.3427 C   0  0  0  0  0  0  0  0  0  0  0  0
   17.0985   23.9238   35.0248 C   0  0  0  0  0  0  0  0  0  0  0  0
   17.3266   19.9927   31.8379 C   0  0  2  0  0  0  0  0  0  0  0  0
   18.2969   21.9670   33.0180 C   0  0  0  0  0  0  0  0  0  0  0  0
   19.9696   18.7158   30.0274 C   0  0  0  0  0  0  0  0  0  0  0  0
  1  2  2  0
  1  3  1  6
  1  7  1  0
  1 21  1  0
  4 20  2  0
  5 20  1  0
  6 22  2  0
  7 23  1  0
  8 21  1  0
  8 22  1  0
  9 10  1  0
 10 12  1  0
 11 13  4  0
 11 14  4  0
 12 15  1  0
 13 17  4  0
 14 18  4  0
 21 15  1  1
 16 19  1  0
 16 20  1  0
 17 23  4  0
 18 23  4  0
 19 22  1  0
M  CHG  2   3  -1   5  -1
M  END
