1jmf_ligand
Version: PDBbind v2024

 31 32  0  0  1  0            999 V2000
   15.9400   49.1560  -58.0410 P   0  0  0  0  0  0
   16.6270   49.3060  -59.3490 O   0  0  0  0  0  0
   14.9130   48.1150  -58.1330 O   0  5  0  0  0  0
   15.3230   50.4200  -57.6170 O   0  5  0  0  0  0
   14.5820   43.9050  -51.8200 O   0  0  0  0  0  0
   11.7630   45.2880  -48.8340 O   0  0  0  0  0  0
   16.7760   45.1580  -55.2110 O   0  0  0  0  0  0
   16.8950   48.5750  -56.8760 O   0  0  0  0  0  0
   16.3780   47.6000  -53.1770 O   0  0  0  0  0  0
   13.2050   44.7180  -50.3860 N   0  0  0  0  0  0
   14.7000   46.2250  -51.5450 N   0  0  0  0  0  0
   16.5160   48.7610  -55.4490 C   0  0  0  0  0  0
   14.2180   47.2810  -50.8550 C   0  0  0  0  0  0
   13.1670   47.0690  -49.8880 C   0  0  0  0  0  0
   14.8940   46.1230  -54.0930 C   0  0  0  0  0  0
   14.1990   44.9350  -51.3010 C   0  0  0  0  0  0
   12.6180   45.6900  -49.6300 C   0  0  0  0  0  0
   15.9730   46.3300  -55.1410 C   0  0  1  0  0  0
   15.5920   46.3810  -52.7540 C   0  0  1  0  0  0
   16.8350   47.4990  -54.6470 C   0  0  2  0  0  0
   16.3344   44.2080  -55.5464 H   0  0  0  0  0  0
   12.8242   43.6997  -50.2187 H   0  0  0  0  0  0
   17.0791   49.6066  -55.0273 H   0  0  0  0  0  0
   15.4378   48.9676  -55.3799 H   0  0  0  0  0  0
   14.5843   48.1982  -51.0118 H   0  0  0  0  0  0
   12.7981   47.8488  -49.3822 H   0  0  0  0  0  0
   14.0724   46.8334  -54.2674 H   0  0  0  0  0  0
   14.5099   45.0944  -54.1604 H   0  0  0  0  0  0
   15.5697   46.4745  -56.1541 H   0  0  0  0  0  0
   16.2911   45.6810  -52.2731 H   0  0  0  0  0  0
   17.9213   47.3703  -54.7624 H   0  0  0  0  0  0
  1  2  2  0  0  0
  1  3  1  0  0  0
  1  4  1  0  0  0
  1  8  1  0  0  0
  5 16  2  0  0  0
  6 17  2  0  0  0
  7 18  1  0  0  0
  7 21  1  0  0  0
  8 12  1  0  0  0
  9 19  1  0  0  0
  9 20  1  0  0  0
 10 16  1  0  0  0
 10 17  1  0  0  0
 10 22  1  0  0  0
 11 13  1  0  0  0
 11 16  1  0  0  0
 11 19  1  0  0  0
 12 20  1  0  0  0
 12 23  1  0  0  0
 12 24  1  0  0  0
 13 14  2  0  0  0
 13 25  1  0  0  0
 14 17  1  0  0  0
 14 26  1  0  0  0
 15 18  1  0  0  0
 15 19  1  0  0  0
 15 27  1  0  0  0
 15 28  1  0  0  0
 18 20  1  0  0  0
 18 29  1  0  0  0
 19 30  1  0  0  0
 20 31  1  0  0  0
M  END
$$$$