#    Name:    1jmf_ligand
#    Version:    PDBbind v2024

@<TRIPOS>MOLECULE
1jmf_ligand
   31    32     1     0     0
SMALL
USER_CHARGES

@<TRIPOS>ATOM
      1 P          15.9400   49.1560  -58.0410 P.3       1 UMP         0.0000
      2 OP1        16.6270   49.3060  -59.3490 O.co2     1 UMP        -0.6667
      3 OP2        14.9130   48.1150  -58.1330 O.co2     1 UMP        -0.6667
      4 OP3        15.3230   50.4200  -57.6170 O.co2     1 UMP        -0.6667
      5 O2         14.5820   43.9050  -51.8200 O.2       1 UMP         0.0000
      6 O4         11.7630   45.2880  -48.8340 O.2       1 UMP         0.0000
      7 O3'        16.7760   45.1580  -55.2110 O.3       1 UMP         0.0000
      8 O5'        16.8950   48.5750  -56.8760 O.3       1 UMP         0.0000
      9 O4'        16.3780   47.6000  -53.1770 O.3       1 UMP         0.0000
     10 N3         13.2050   44.7180  -50.3860 N.am      1 UMP         0.0000
     11 N1         14.7000   46.2250  -51.5450 N.am      1 UMP         0.0000
     12 C5'        16.5160   48.7610  -55.4490 C.3       1 UMP         0.0000
     13 C6         14.2180   47.2810  -50.8550 C.2       1 UMP         0.0000
     14 C5         13.1670   47.0690  -49.8880 C.2       1 UMP         0.0000
     15 C2'        14.8940   46.1230  -54.0930 C.3       1 UMP         0.0000
     16 C2         14.1990   44.9350  -51.3010 C.2       1 UMP         0.0000
     17 C4         12.6180   45.6900  -49.6300 C.2       1 UMP         0.0000
     18 C3'        15.9730   46.3300  -55.1410 C.3       1 UMP         0.0000
     19 C1'        15.5920   46.3810  -52.7540 C.3       1 UMP         0.0000
     20 C4'        16.8350   47.4990  -54.6470 C.3       1 UMP         0.0000
     21 H          16.3344   44.2080  -55.5464 H         1 UMP         0.0000
     22 H          12.8242   43.6997  -50.2187 H         1 UMP         0.0000
     23 H          17.0791   49.6066  -55.0273 H         1 UMP         0.0000
     24 H          15.4378   48.9676  -55.3799 H         1 UMP         0.0000
     25 H          14.6173   48.2807  -51.0259 H         1 UMP         0.0000
     26 H          12.7650   47.9190  -49.3367 H         1 UMP         0.0000
     27 H          14.0724   46.8334  -54.2674 H         1 UMP         0.0000
     28 H          14.5099   45.0944  -54.1604 H         1 UMP         0.0000
     29 H          15.5697   46.4745  -56.1541 H         1 UMP         0.0000
     30 H          16.2911   45.6810  -52.2731 H         1 UMP         0.0000
     31 H          17.9213   47.3703  -54.7624 H         1 UMP         0.0000
@<TRIPOS>BOND
     1    1    2 ar
     2    1    3 ar
     3    1    4 ar
     4    1    8 1
     5    5   16 2
     6    6   17 2
     7    7   18 1
     8    7   21 1
     9    8   12 1
    10    9   19 1
    11    9   20 1
    12   10   16 am
    13   10   17 am
    14   10   22 1
    15   11   13 1
    16   11   16 am
    17   11   19 1
    18   12   20 1
    19   12   23 1
    20   12   24 1
    21   13   14 2
    22   13   25 1
    23   14   17 1
    24   14   26 1
    25   15   18 1
    26   15   19 1
    27   15   27 1
    28   15   28 1
    29   18   20 1
    30   18   29 1
    31   19   30 1
    32   20   31 1

